
     RDKit          3D

 69 73  0  0  0  0  0  0  0  0999 V2000
   21.4840    1.9000    4.5570 N   0  0  0  0  0  0  0  0  0  0  0  0
   20.0440    7.5060    7.4380 C   0  0  0  0  0  0  0  0  0  0  0  0
   25.8020    1.9610    9.2270 O   0  0  0  0  0  0  0  0  0  0  0  0
   22.9300    1.6580    9.4290 Cl  0  0  0  0  0  0  0  0  0  0  0  0
   18.8620    6.8740    6.7180 C   0  0  0  0  0  0  0  0  0  0  0  0
   23.1930    3.0260    3.7740 N   0  0  0  0  0  0  0  0  0  0  0  0
   29.4720    4.4260    2.3450 O   0  0  0  0  0  0  0  0  0  0  0  0
   18.9340    5.8960    5.7900 C   0  0  0  0  0  0  0  0  0  0  0  0
   26.9520    3.4480    3.0980 N   0  0  0  0  0  0  0  0  0  0  0  0
   16.7060    6.2950    5.9880 O   0  0  0  0  0  0  0  0  0  0  0  0
   20.0690    5.2680    5.2790 C   0  0  0  0  0  0  0  0  0  0  0  0
   17.5860    7.2100    6.9580 N   0  0  0  0  0  0  0  0  0  0  0  0
   21.1720    5.9750    4.7720 C   0  0  0  0  0  0  0  0  0  0  0  0
   22.2750    5.2940    4.2440 C   0  0  0  0  0  0  0  0  0  0  0  0
   22.2920    3.9360    4.2230 C   0  0  0  0  0  0  0  0  0  0  0  0
   21.2390    3.2260    4.7100 C   0  0  0  0  0  0  0  0  0  0  0  0
   20.1610    3.8580    5.2310 C   0  0  0  0  0  0  0  0  0  0  0  0
   22.6710    1.8110    3.9850 C   0  0  0  0  0  0  0  0  0  0  0  0
   23.3300    0.4910    3.6160 C   0  0  0  0  0  0  0  0  0  0  0  0
   23.3880   -0.5060    4.7950 C   0  0  0  0  0  0  0  0  0  0  0  0
   24.0290    0.0850    5.9270 C   0  0  0  0  0  0  0  0  0  0  0  0
   25.4120    0.2680    5.9550 C   0  0  0  0  0  0  0  0  0  0  0  0
   26.0430    0.8700    7.0410 C   0  0  0  0  0  0  0  0  0  0  0  0
   25.2780    1.3240    8.1190 C   0  0  0  0  0  0  0  0  0  0  0  0
   23.8890    1.1460    8.1120 C   0  0  0  0  0  0  0  0  0  0  0  0
   23.2710    0.5430    7.0150 C   0  0  0  0  0  0  0  0  0  0  0  0
   27.2200    2.1850    9.2650 C   0  0  0  0  0  0  0  0  0  0  0  0
   24.4900    3.3870    3.0980 C   0  0  0  0  0  0  0  0  0  0  0  0
   25.7240    3.2360    3.9580 C   0  0  2  0  0  0  0  0  0  0  0  0
   25.6370    4.1860    5.1630 C   0  0  0  0  0  0  0  0  0  0  0  0
   27.1010    4.8010    2.6110 C   0  0  0  0  0  0  0  0  0  0  0  0
   28.2920    4.8340    1.6530 C   0  0  0  0  0  0  0  0  0  0  0  0
   29.3470    3.0740    2.8390 C   0  0  0  0  0  0  0  0  0  0  0  0
   28.1550    3.0180    3.7850 C   0  0  0  0  0  0  0  0  0  0  0  0
   17.6520    5.6100    5.3740 C   0  0  0  0  0  0  0  0  0  0  0  0
   17.2550    4.6040    4.3050 C   0  0  0  0  0  0  0  0  0  0  0  0
   19.8961    7.4269    8.5251 H   0  0  0  0  0  0  0  0  0  0  0  0
   20.9687    6.9820    7.1547 H   0  0  0  0  0  0  0  0  0  0  0  0
   20.1218    8.5660    7.1547 H   0  0  0  0  0  0  0  0  0  0  0  0
   21.1688    7.0748    4.7901 H   0  0  0  0  0  0  0  0  0  0  0  0
   23.1299    5.8598    3.8452 H   0  0  0  0  0  0  0  0  0  0  0  0
   19.3311    3.2558    5.6293 H   0  0  0  0  0  0  0  0  0  0  0  0
   22.7587    0.0313    2.7961 H   0  0  0  0  0  0  0  0  0  0  0  0
   24.3664    0.7121    3.3212 H   0  0  0  0  0  0  0  0  0  0  0  0
   22.3641   -0.7976    5.0716 H   0  0  0  0  0  0  0  0  0  0  0  0
   23.9658   -1.3885    4.4830 H   0  0  0  0  0  0  0  0  0  0  0  0
   26.0170   -0.0705    5.1009 H   0  0  0  0  0  0  0  0  0  0  0  0
   27.1367    0.9874    7.0502 H   0  0  0  0  0  0  0  0  0  0  0  0
   22.1773    0.4257    7.0036 H   0  0  0  0  0  0  0  0  0  0  0  0
   27.5549    2.2379   10.3114 H   0  0  0  0  0  0  0  0  0  0  0  0
   27.7357    1.3572    8.7563 H   0  0  0  0  0  0  0  0  0  0  0  0
   27.4555    3.1315    8.7563 H   0  0  0  0  0  0  0  0  0  0  0  0
   24.6071    2.7390    2.2169 H   0  0  0  0  0  0  0  0  0  0  0  0
   24.4188    4.4560    2.8487 H   0  0  0  0  0  0  0  0  0  0  0  0
   25.7972    2.2209    4.3754 H   0  0  0  0  0  0  0  0  0  0  0  0
   25.6904    3.6029    6.0942 H   0  0  0  0  0  0  0  0  0  0  0  0
   26.4736    4.8994    5.1286 H   0  0  0  0  0  0  0  0  0  0  0  0
   24.6848    4.7356    5.1286 H   0  0  0  0  0  0  0  0  0  0  0  0
   26.1877    5.1089    2.0808 H   0  0  0  0  0  0  0  0  0  0  0  0
   27.2689    5.4914    3.4508 H   0  0  0  0  0  0  0  0  0  0  0  0
   28.4265    5.8566    1.2706 H   0  0  0  0  0  0  0  0  0  0  0  0
   28.1051    4.1493    0.8126 H   0  0  0  0  0  0  0  0  0  0  0  0
   29.1865    2.3840    1.9975 H   0  0  0  0  0  0  0  0  0  0  0  0
   30.2647    2.7779    3.3683 H   0  0  0  0  0  0  0  0  0  0  0  0
   28.3403    3.6807    4.6432 H   0  0  0  0  0  0  0  0  0  0  0  0
   28.0202    1.9832    4.1330 H   0  0  0  0  0  0  0  0  0  0  0  0
   16.8917    3.6833    4.7848 H   0  0  0  0  0  0  0  0  0  0  0  0
   16.4576    5.0302    3.6784 H   0  0  0  0  0  0  0  0  0  0  0  0
   18.1285    4.3708    3.6784 H   0  0  0  0  0  0  0  0  0  0  0  0
  1 16  1  0
  1 18  2  0
  2  5  1  0
  3 27  1  0
  3 24  1  0
  4 25  1  0
  5  8  1  0
  5 12  2  0
  6 15  1  0
  6 28  1  0
  6 18  1  0
  7 32  1  0
  7 33  1  0
  8 35  2  0
  8 11  1  0
  9 31  1  0
  9 34  1  0
  9 29  1  0
 10 12  1  0
 10 35  1  0
 11 13  1  0
 11 17  2  0
 13 14  2  0
 14 15  1  0
 15 16  2  0
 16 17  1  0
 18 19  1  0
 19 20  1  0
 20 21  1  0
 21 22  2  0
 21 26  1  0
 22 23  1  0
 23 24  2  0
 24 25  1  0
 25 26  2  0
 28 29  1  0
 29 30  1  0
 31 32  1  0
 33 34  1  0
 35 36  1  0
  2 37  1  0
  2 38  1  0
  2 39  1  0
 13 40  1  0
 14 41  1  0
 17 42  1  0
 19 43  1  0
 19 44  1  0
 20 45  1  0
 20 46  1  0
 22 47  1  0
 23 48  1  0
 26 49  1  0
 27 50  1  0
 27 51  1  0
 27 52  1  0
 28 53  1  0
 28 54  1  0
 29 55  1  1
 30 56  1  0
 30 57  1  0
 30 58  1  0
 31 59  1  0
 31 60  1  0
 32 61  1  0
 32 62  1  0
 33 63  1  0
 33 64  1  0
 34 65  1  0
 34 66  1  0
 36 67  1  0
 36 68  1  0
 36 69  1  0
M  END
