
     RDKit          3D

 77 81  0  0  0  0  0  0  0  0999 V2000
    2.4660  -37.6320  -18.5700 C   0  0  0  0  0  0  0  0  0  0  0  0
   -0.1130  -40.2150  -20.8960 N   0  0  0  0  0  0  0  0  0  0  0  0
    3.2510  -36.9870  -17.6130 C   0  0  0  0  0  0  0  0  0  0  0  0
    1.0160  -40.8100  -19.1790 N   0  0  0  0  0  0  0  0  0  0  0  0
    3.4280  -37.5080  -16.3480 C   0  0  0  0  0  0  0  0  0  0  0  0
   -0.5720  -35.4150  -21.7590 N   0  0  0  0  0  0  0  0  0  0  0  0
    2.7930  -38.7030  -16.0780 C   0  0  0  0  0  0  0  0  0  0  0  0
   -0.1470  -37.6710  -22.0980 N   0  0  0  0  0  0  0  0  0  0  0  0
    2.0100  -39.3430  -17.0370 C   0  0  0  0  0  0  0  0  0  0  0  0
   -3.2330  -41.5470  -23.4480 N   0  0  0  0  0  0  0  0  0  0  0  0
    1.7930  -38.8160  -18.3060 C   0  0  0  0  0  0  0  0  0  0  0  0
   -0.6610  -36.2240  -23.8700 N   0  0  0  0  0  0  0  0  0  0  0  0
    1.0560  -39.4900  -19.2240 C   0  0  0  0  0  0  0  0  0  0  0  0
   -5.3740  -43.0900  -23.2650 N   0  0  0  0  0  0  0  0  0  0  0  0
    0.3590  -39.1170  -20.3160 C   0  0  0  0  0  0  0  0  0  0  0  0
    0.2910  -41.2400  -20.1890 C   0  0  0  0  0  0  0  0  0  0  0  0
   -0.9740  -40.3490  -22.0890 C   0  0  1  0  0  0  0  0  0  0  0  0
    0.0680  -37.8970  -20.7970 C   0  0  0  0  0  0  0  0  0  0  0  0
   -0.0620  -36.8360  -19.9280 C   0  0  0  0  0  0  0  0  0  0  0  0
   -0.3790  -35.5910  -20.4160 C   0  0  0  0  0  0  0  0  0  0  0  0
   -0.4600  -36.4580  -22.5760 C   0  0  0  0  0  0  0  0  0  0  0  0
   -0.9070  -41.7440  -22.6790 C   0  0  0  0  0  0  0  0  0  0  0  0
   -1.8770  -41.8720  -23.8390 C   0  0  0  0  0  0  0  0  0  0  0  0
   -3.2450  -40.1720  -22.9700 C   0  0  0  0  0  0  0  0  0  0  0  0
   -2.3980  -40.0530  -21.7440 C   0  0  0  0  0  0  0  0  0  0  0  0
   -0.5990  -37.2100  -24.7540 C   0  0  0  0  0  0  0  0  0  0  0  0
   -1.6760  -37.4570  -25.5880 C   0  0  0  0  0  0  0  0  0  0  0  0
   -1.6220  -38.4770  -26.5180 C   0  0  0  0  0  0  0  0  0  0  0  0
   -0.4850  -39.2570  -26.6270 C   0  0  0  0  0  0  0  0  0  0  0  0
    0.6010  -39.0100  -25.8060 C   0  0  0  0  0  0  0  0  0  0  0  0
    0.5360  -37.9780  -24.8860 C   0  0  0  0  0  0  0  0  0  0  0  0
   -4.0740  -41.6290  -24.6300 C   0  0  0  0  0  0  0  0  0  0  0  0
   -5.4710  -42.0140  -24.2290 C   0  0  0  0  0  0  0  0  0  0  0  0
   -6.6650  -43.1960  -22.5920 C   0  0  0  0  0  0  0  0  0  0  0  0
   -5.0290  -44.3320  -23.9560 C   0  0  0  0  0  0  0  0  0  0  0  0
    4.2490  -36.8520  -15.3740 C   0  0  2  0  0  0  0  0  0  0  0  0
   -2.7140  -38.7270  -27.3380 C   0  0  0  0  0  0  0  0  0  0  0  0
    1.7470  -39.7840  -25.9030 C   0  0  0  0  0  0  0  0  0  0  0  0
    4.0960  -35.6820  -15.4210 F   0  0  0  0  0  0  0  0  0  0  0  0
    5.3860  -37.0790  -15.6210 F   0  0  0  0  0  0  0  0  0  0  0  0
    4.0210  -37.2660  -14.2190 F   0  0  0  0  0  0  0  0  0  0  0  0
    2.3777  -37.1847  -19.5711 H   0  0  0  0  0  0  0  0  0  0  0  0
    3.7416  -36.0378  -17.8745 H   0  0  0  0  0  0  0  0  0  0  0  0
    2.9073  -39.1604  -15.0842 H   0  0  0  0  0  0  0  0  0  0  0  0
    1.5439  -40.3055  -16.7796 H   0  0  0  0  0  0  0  0  0  0  0  0
   -0.8670  -35.2664  -24.1885 H   0  0  0  0  0  0  0  0  0  0  0  0
    0.0608  -42.2937  -20.4052 H   0  0  0  0  0  0  0  0  0  0  0  0
   -0.6018  -39.6273  -22.8310 H   0  0  0  0  0  0  0  0  0  0  0  0
    0.0873  -36.9847  -18.8484 H   0  0  0  0  0  0  0  0  0  0  0  0
   -0.4773  -34.7380  -19.7285 H   0  0  0  0  0  0  0  0  0  0  0  0
    0.1148  -41.9379  -23.0372 H   0  0  0  0  0  0  0  0  0  0  0  0
   -1.1789  -42.4744  -21.9027 H   0  0  0  0  0  0  0  0  0  0  0  0
   -1.8525  -42.9071  -24.2104 H   0  0  0  0  0  0  0  0  0  0  0  0
   -1.5685  -41.1625  -24.6209 H   0  0  0  0  0  0  0  0  0  0  0  0
   -2.8479  -39.5098  -23.7535 H   0  0  0  0  0  0  0  0  0  0  0  0
   -4.2778  -39.8818  -22.7267 H   0  0  0  0  0  0  0  0  0  0  0  0
   -2.7478  -40.7695  -20.9862 H   0  0  0  0  0  0  0  0  0  0  0  0
   -2.4729  -39.0304  -21.3455 H   0  0  0  0  0  0  0  0  0  0  0  0
   -2.5810  -36.8367  -25.5096 H   0  0  0  0  0  0  0  0  0  0  0  0
   -0.4442  -40.0719  -27.3648 H   0  0  0  0  0  0  0  0  0  0  0  0
    1.4073  -37.7675  -24.2485 H   0  0  0  0  0  0  0  0  0  0  0  0
   -4.0940  -40.6513  -25.1337 H   0  0  0  0  0  0  0  0  0  0  0  0
   -3.6683  -42.3879  -25.3152 H   0  0  0  0  0  0  0  0  0  0  0  0
   -6.0340  -42.3519  -25.1116 H   0  0  0  0  0  0  0  0  0  0  0  0
   -5.9965  -41.1523  -23.7915 H   0  0  0  0  0  0  0  0  0  0  0  0
   -6.5127  -43.1835  -21.5027 H   0  0  0  0  0  0  0  0  0  0  0  0
   -7.3010  -42.3471  -22.8831 H   0  0  0  0  0  0  0  0  0  0  0  0
   -7.1541  -44.1373  -22.8831 H   0  0  0  0  0  0  0  0  0  0  0  0
   -4.8114  -45.1155  -23.2152 H   0  0  0  0  0  0  0  0  0  0  0  0
   -5.8735  -44.6477  -24.5863 H   0  0  0  0  0  0  0  0  0  0  0  0
   -4.1427  -44.1669  -24.5863 H   0  0  0  0  0  0  0  0  0  0  0  0
   -3.5995  -38.9297  -26.7177 H   0  0  0  0  0  0  0  0  0  0  0  0
   -2.9043  -37.8492  -27.9730 H   0  0  0  0  0  0  0  0  0  0  0  0
   -2.5034  -39.6002  -27.9730 H   0  0  0  0  0  0  0  0  0  0  0  0
    2.1102  -40.0293  -24.8941 H   0  0  0  0  0  0  0  0  0  0  0  0
    1.5174  -40.7127  -26.4459 H   0  0  0  0  0  0  0  0  0  0  0  0
    2.5227  -39.2241  -26.4459 H   0  0  0  0  0  0  0  0  0  0  0  0
  1  3  2  0
  1 11  1  0
  2 15  1  0
  2 16  1  0
  2 17  1  0
  3  5  1  0
  4 13  1  0
  4 16  2  0
  5  7  2  0
  5 36  1  0
  6 20  2  0
  6 21  1  0
  7  9  1  0
  8 18  1  0
  8 21  2  0
  9 11  2  0
 10 23  1  0
 10 24  1  0
 10 32  1  0
 11 13  1  0
 12 21  1  0
 12 26  1  0
 13 15  2  0
 14 33  1  0
 14 34  1  0
 14 35  1  0
 15 18  1  0
 17 22  1  0
 17 25  1  0
 18 19  2  0
 19 20  1  0
 22 23  1  0
 24 25  1  0
 26 27  2  0
 26 31  1  0
 27 28  1  0
 28 29  2  0
 28 37  1  0
 29 30  1  0
 30 38  1  0
 30 31  2  0
 32 33  1  0
 36 39  1  1
 36 40  1  0
 36 41  1  0
  1 42  1  0
  3 43  1  0
  7 44  1  0
  9 45  1  0
 12 46  1  0
 16 47  1  0
 17 48  1  6
 19 49  1  0
 20 50  1  0
 22 51  1  0
 22 52  1  0
 23 53  1  0
 23 54  1  0
 24 55  1  0
 24 56  1  0
 25 57  1  0
 25 58  1  0
 27 59  1  0
 29 60  1  0
 31 61  1  0
 32 62  1  0
 32 63  1  0
 33 64  1  0
 33 65  1  0
 34 66  1  0
 34 67  1  0
 34 68  1  0
 35 69  1  0
 35 70  1  0
 35 71  1  0
 37 72  1  0
 37 73  1  0
 37 74  1  0
 38 75  1  0
 38 76  1  0
 38 77  1  0
M  END
